[TITLE]


[JUNCTIONS]
;ID              	Elev        	Demand      	Pattern         
 1               	6.5000      	25.000000   	random_week ;
 2               	6.5000      	34.050000   	random_week ;
 3               	6.5000      	32.930000   	random_week ;
 4               	6.5000      	30.520000   	random_week ;
 5               	6.5000      	73.380000   	random_week ;
 6               	6.5000      	55.950000   	random_week ;
 7               	6.5000      	119.870000  	random_week ;
 8               	6.5000      	28.250000   	random_week ;
 9               	6.5000      	40.130000   	random_week ;
 10              	6.5000      	32.860000   	random_week ;
 11              	6.5000      	52.070000   	random_week ;
 12              	6.5000      	33.280000   	random_week ;
 13              	6.5000      	124.010000  	random_week ;
 14              	6.5000      	27.670000   	random_week ;
 15              	6.5000      	61.540000   	random_week ;
 16              	6.5000      	18.450000   	random_week ;
 17              	6.5000      	73.140000   	random_week ;
 18              	6.5000      	39.220000   	random_week ;
 19              	6.5000      	13.150000   	random_week ;
 20              	6.5000      	25.560000   	random_week ;
 21              	6.5000      	86.020000   	random_week ;
 22              	6.5000      	58.900000   	random_week ;
 23              	6.5000      	42.380000   	random_week ;
 24              	6.5000      	65.640000   	random_week ;
 25              	6.5000      	57.840000   	random_week ;
 26              	6.5000      	39.740000   	random_week ;
 27              	6.5000      	102.510000  	random_week ;
 28              	6.5000      	24.800000   	random_week ;
 29              	6.5000      	23.810000   	random_week ;
 30              	6.5000      	37.180000   	random_week ;
 31              	6.5000      	40.310000   	random_week ;
 32              	6.5000      	35.140000   	random_week ;
 33              	6.5000      	50.070000   	random_week ;
 34              	6.5000      	55.190000   	random_week ;
 35              	6.5000      	43.860000   	random_week ;
 36              	6.5000      	75.770000   	random_week ;
 37              	6.5000      	37.740000   	random_week ;
 38              	6.5000      	69.010000   	random_week ;
 39              	6.5000      	22.450000   	random_week ;
 40              	6.5000      	31.730000   	random_week ;
 41              	6.5000      	59.190000   	random_week ;
 42              	6.5000      	46.830000   	random_week ;
 43              	6.5000      	33.700000   	random_week ;
 44              	6.5000      	22.530000   	random_week ;
 45              	6.5000      	22.060000   	random_week ;
 46              	6.5000      	24.510000   	random_week ;
 47              	6.5000      	21.130000   	random_week ;
 48              	6.5000      	20.270000   	random_week ;
 49              	6.5000      	36.820000   	random_week ;
 50              	6.5000      	56.300000   	random_week ;
 51              	6.5000      	59.130000   	random_week ;
 52              	6.5000      	35.860000   	random_week ;
 53              	6.5000      	28.540000   	random_week ;
 54              	6.5000      	44.650000   	random_week ;
 55              	6.5000      	18.400000   	random_week ;
 56              	6.5000      	53.240000   	random_week ;
 57              	6.5000      	34.730000   	random_week ;
 58              	6.5000      	58.810000   	random_week ;
 59              	6.5000      	77.970000   	random_week ;
 60              	6.5000      	61.950000   	random_week ;
 61              	6.5000      	70.680000   	random_week ;
 62              	6.5000      	21.560000   	random_week ;
 63              	6.5000      	17.120000   	random_week ;
 64              	6.5000      	31.010000   	random_week ;
 65              	6.5000      	21.440000   	random_week ;
 66              	6.5000      	49.630000   	random_week ;
 67              	6.5000      	30.670000   	random_week ;
 68              	6.5000      	25.580000   	random_week ;
 69              	6.5000      	15.470000   	random_week ;
 70              	6.5000      	17.180000   	random_week ;
 71              	6.5000      	31.630000   	random_week ;
 72              	6.5000      	30.900000   	random_week ;
 73              	6.5000      	16.730000   	random_week ;
 74              	6.5000      	30.890000   	random_week ;
 75              	6.5000      	34.590000   	random_week ;
 76              	6.5000      	96.220000   	random_week ;
 77              	6.5000      	29.690000   	random_week ;
 78              	6.5000      	38.230000   	random_week ;
 79              	6.5000      	98.640000   	random_week ;
 80              	6.5000      	68.230000   	random_week ;
 81              	6.5000      	45.330000   	random_week ;
 82              	6.5000      	87.610000   	random_week ;
 83              	6.5000      	27.970000   	random_week ;
 84              	6.5000      	50.040000   	random_week ;
 85              	6.5000      	95.490000   	random_week ;
 86              	6.5000      	94.660000   	random_week ;
 87              	6.5000      	80.230000   	random_week ;
 88              	6.5000      	85.170000   	random_week ;
 89              	6.5000      	245.520000  	random_week ;
 90              	6.5000      	63.240000   	random_week ;
 91              	6.5000      	30.030000   	random_week ;
 92              	6.5000      	23.500000   	random_week ;
 93              	6.5000      	133.340000  	random_week ;
 94              	6.5000      	34.760000   	random_week ;
 95              	6.5000      	55.020000   	random_week ;
 96              	6.5000      	35.960000   	random_week ;
 97              	6.5000      	86.730000   	random_week ;
 98              	6.5000      	47.110000   	random_week ;
 99              	6.5000      	36.170000   	random_week ;
 100             	6.5000      	72.680000   	random_week ;
 101             	6.5000      	39.170000   	random_week ;
 102             	6.5000      	40.040000   	random_week ;
 103             	6.5000      	50.110000   	random_week ;
 104             	6.5000      	92.700000   	random_week ;
 105             	6.5000      	57.360000   	random_week ;
 106             	6.5000      	17.170000   	random_week ;
 107             	6.5000      	4.640000    	random_week ;
 108             	6.5000      	18.260000   	random_week ;
 109             	6.5000      	47.860000   	random_week ;
 110             	6.5000      	0.000000    	random_week ;
 111             	6.5000      	73.500000   	random_week ;
 112             	6.5000      	46.510000   	random_week ;
 113             	6.5000      	105.320000  	random_week ;

[RESERVOIRS]
;ID              	Head        	Pattern         
 114             	55          	                	;

[TANKS]
;ID              	Elevation   	InitLevel   	MinLevel    	MaxLevel    	Diameter    	MinVol      	VolCurve        	Overflow

[PIPES]
;ID              	Node1           	Node2           	Length      	Diameter    	Roughness   	MinorLoss   	Status
 1               	2               	1               	812.0000    	600.0000    	130.0000    	0.0000      	Open  	;
 2               	2               	3               	749.0000    	600.0000    	130.0000    	0.0000      	Open  	;
 3               	4               	3               	616.0000    	600.0000    	130.0000    	0.0000      	Open  	;
 4               	1               	4               	770.0000    	600.0000    	130.0000    	0.0000      	Open  	;
 5               	4               	5               	432.0000    	600.0000    	130.0000    	0.0000      	Open  	;
 6               	5               	6               	1099.0000   	600.0000    	130.0000    	0.0000      	Open  	;
 7               	7               	6               	546.0000    	600.0000    	130.0000    	0.0000      	Open  	;
 9               	6               	8               	603.0000    	600.0000    	130.0000    	0.0000      	Open  	;
 10              	8               	9               	627.0000    	600.0000    	130.0000    	0.0000      	Open  	;
 11              	7               	10              	1258.0000   	600.0000    	130.0000    	0.0000      	Open  	;
 12              	9               	10              	563.0000    	600.0000    	130.0000    	0.0000      	Open  	;
 13              	10              	12              	1327.0000   	600.0000    	130.0000    	0.0000      	Open  	;
 14              	9               	11              	939.0000    	600.0000    	130.0000    	0.0000      	Open  	;
 15              	12              	11              	842.0000    	600.0000    	130.0000    	0.0000      	Open  	;
 16              	11              	14              	739.0000    	600.0000    	130.0000    	0.0000      	Open  	;
 17              	80              	13              	576.0000    	600.0000    	130.0000    	0.0000      	Open  	;
 18              	14              	15              	634.0000    	600.0000    	130.0000    	0.0000      	Open  	;
 19              	12              	15              	858.0000    	600.0000    	130.0000    	0.0000      	Open  	;
 21              	16              	17              	520.0000    	600.0000    	130.0000    	0.0000      	Open  	;
 22              	18              	17              	966.0000    	600.0000    	130.0000    	0.0000      	Open  	;
 23              	15              	18              	575.0000    	600.0000    	130.0000    	0.0000      	Open  	;
 24              	19              	18              	620.0000    	600.0000    	130.0000    	0.0000      	Open  	;
 25              	14              	19              	482.0000    	600.0000    	130.0000    	0.0000      	Open  	;
 26              	20              	19              	757.0000    	600.0000    	130.0000    	0.0000      	Open  	;
 27              	21              	20              	973.0000    	600.0000    	130.0000    	0.0000      	Open  	;
 28              	11              	21              	862.0000    	600.0000    	130.0000    	0.0000      	Open  	;
 29              	22              	21              	510.0000    	600.0000    	130.0000    	0.0000      	Open  	;
 30              	22              	9               	1174.0000   	600.0000    	130.0000    	0.0000      	Open  	;
 31              	23              	22              	574.0000    	600.0000    	130.0000    	0.0000      	Open  	;
 32              	8               	23              	1119.0000   	600.0000    	130.0000    	0.0000      	Open  	;
 33              	24              	23              	551.0000    	600.0000    	130.0000    	0.0000      	Open  	;
 34              	6               	24              	1094.0000   	600.0000    	130.0000    	0.0000      	Open  	;
 35              	25              	89              	388.0000    	600.0000    	130.0000    	0.0000      	Open  	;
 37              	26              	25              	591.0000    	600.0000    	130.0000    	0.0000      	Open  	;
 38              	4               	26              	783.0000    	600.0000    	130.0000    	0.0000      	Open  	;
 39              	27              	85              	300.0000    	600.0000    	130.0000    	0.0000      	Open  	;
 40              	3               	27              	758.0000    	600.0000    	130.0000    	0.0000      	Open  	;
 41              	28              	34              	644.0000    	600.0000    	130.0000    	0.0000      	Open  	;
 42              	29              	28              	1324.0000   	600.0000    	130.0000    	0.0000      	Open  	;
 43              	30              	29              	601.0000    	600.0000    	130.0000    	0.0000      	Open  	;
 44              	30              	31              	899.0000    	600.0000    	130.0000    	0.0000      	Open  	;
 45              	31              	32              	794.0000    	600.0000    	130.0000    	0.0000      	Open  	;
 46              	32              	27              	652.0000    	600.0000    	130.0000    	0.0000      	Open  	;
 47              	32              	33              	579.0000    	600.0000    	130.0000    	0.0000      	Open  	;
 48              	33              	26              	684.0000    	600.0000    	130.0000    	0.0000      	Open  	;
 49              	33              	35              	595.0000    	600.0000    	130.0000    	0.0000      	Open  	;
 51              	34              	27              	432.0000    	600.0000    	130.0000    	0.0000      	Open  	;
 52              	35              	36              	610.0000    	600.0000    	130.0000    	0.0000      	Open  	;
 53              	36              	24              	758.0000    	600.0000    	130.0000    	0.0000      	Open  	;
 54              	36              	37              	707.0000    	600.0000    	130.0000    	0.0000      	Open  	;
 55              	37              	23              	731.0000    	600.0000    	130.0000    	0.0000      	Open  	;
 56              	37              	38              	708.0000    	600.0000    	130.0000    	0.0000      	Open  	;
 57              	38              	21              	919.0000    	600.0000    	130.0000    	0.0000      	Open  	;
 58              	38              	39              	925.0000    	600.0000    	130.0000    	0.0000      	Open  	;
 59              	39              	20              	815.0000    	600.0000    	130.0000    	0.0000      	Open  	;
 60              	40              	39              	871.0000    	600.0000    	130.0000    	0.0000      	Open  	;
 61              	41              	40              	1009.0000   	600.0000    	130.0000    	0.0000      	Open  	;
 62              	41              	38              	892.0000    	600.0000    	130.0000    	0.0000      	Open  	;
 63              	42              	41              	534.0000    	600.0000    	130.0000    	0.0000      	Open  	;
 64              	42              	37              	797.0000    	600.0000    	130.0000    	0.0000      	Open  	;
 65              	111             	42              	274.0000    	600.0000    	130.0000    	0.0000      	Open  	;
 66              	43              	36              	776.0000    	600.0000    	130.0000    	0.0000      	Open  	;
 67              	44              	43              	569.0000    	600.0000    	130.0000    	0.0000      	Open  	;
 69              	45              	44              	581.0000    	600.0000    	130.0000    	0.0000      	Open  	;
 71              	31              	45              	552.0000    	600.0000    	130.0000    	0.0000      	Open  	;
 72              	46              	31              	622.0000    	600.0000    	130.0000    	0.0000      	Open  	;
 73              	46              	47              	504.0000    	600.0000    	130.0000    	0.0000      	Open  	;
 74              	47              	45              	635.0000    	600.0000    	130.0000    	0.0000      	Open  	;
 75              	47              	48              	590.0000    	600.0000    	130.0000    	0.0000      	Open  	;
 78              	49              	43              	728.0000    	600.0000    	130.0000    	0.0000      	Open  	;
 79              	49              	50              	686.0000    	600.0000    	130.0000    	0.0000      	Open  	;
 80              	50              	41              	776.0000    	600.0000    	130.0000    	0.0000      	Open  	;
 81              	50              	51              	1016.0000   	600.0000    	130.0000    	0.0000      	Open  	;
 82              	51              	40              	793.0000    	600.0000    	130.0000    	0.0000      	Open  	;
 84              	54              	52              	992.0000    	600.0000    	130.0000    	0.0000      	Open  	;
 85              	62              	53              	728.0000    	600.0000    	130.0000    	0.0000      	Open  	;
 86              	55              	54              	412.0000    	600.0000    	130.0000    	0.0000      	Open  	;
 89              	56              	55              	446.0000    	600.0000    	130.0000    	0.0000      	Open  	;
 91              	57              	56              	570.0000    	600.0000    	130.0000    	0.0000      	Open  	;
 93              	58              	57              	478.0000    	600.0000    	130.0000    	0.0000      	Open  	;
 94              	58              	46              	830.0000    	600.0000    	130.0000    	0.0000      	Open  	;
 95              	59              	58              	1030.0000   	600.0000    	130.0000    	0.0000      	Open  	;
 96              	60              	30              	682.0000    	600.0000    	130.0000    	0.0000      	Open  	;
 97              	59              	60              	775.0000    	600.0000    	130.0000    	0.0000      	Open  	;
 99              	53              	61              	866.0000    	600.0000    	130.0000    	0.0000      	Open  	;
 100             	63              	106             	150.0000    	600.0000    	130.0000    	0.0000      	Open  	;
 101             	109             	75              	679.0000    	600.0000    	130.0000    	0.0000      	Open  	;
 102             	64              	94              	830.0000    	600.0000    	130.0000    	0.0000      	Open  	;
 103             	110             	64              	508.0000    	600.0000    	130.0000    	0.0000      	Open  	;
 104             	110             	59              	1416.0000   	600.0000    	130.0000    	0.0000      	Open  	;
 105             	52              	65              	739.0000    	600.0000    	130.0000    	0.0000      	Open  	;
 106             	54              	66              	716.0000    	600.0000    	130.0000    	0.0000      	Open  	;
 108             	57              	68              	593.0000    	600.0000    	130.0000    	0.0000      	Open  	;
 109             	58              	69              	553.0000    	600.0000    	130.0000    	0.0000      	Open  	;
 110             	66              	65              	930.0000    	600.0000    	130.0000    	0.0000      	Open  	;
 111             	67              	66              	604.0000    	600.0000    	130.0000    	0.0000      	Open  	;
 112             	68              	67              	505.0000    	600.0000    	130.0000    	0.0000      	Open  	;
 113             	69              	68              	454.0000    	600.0000    	130.0000    	0.0000      	Open  	;
 114             	65              	70              	771.0000    	600.0000    	130.0000    	0.0000      	Open  	;
 115             	66              	112             	381.0000    	600.0000    	130.0000    	0.0000      	Open  	;
 116             	94              	75              	1095.0000   	600.0000    	130.0000    	0.0000      	Open  	;
 118             	74              	73              	402.0000    	600.0000    	130.0000    	0.0000      	Open  	;
 119             	69              	74              	392.0000    	600.0000    	130.0000    	0.0000      	Open  	;
 120             	71              	70              	813.0000    	600.0000    	130.0000    	0.0000      	Open  	;
 121             	72              	71              	766.0000    	600.0000    	130.0000    	0.0000      	Open  	;
 122             	73              	72              	399.0000    	600.0000    	130.0000    	0.0000      	Open  	;
 126             	82              	83              	855.0000    	600.0000    	130.0000    	0.0000      	Open  	;
 127             	81              	82              	857.0000    	600.0000    	130.0000    	0.0000      	Open  	;
 128             	80              	81              	473.0000    	600.0000    	130.0000    	0.0000      	Open  	;
 129             	76              	74              	1124.0000   	600.0000    	130.0000    	0.0000      	Open  	;
 130             	79              	80              	1025.0000   	600.0000    	130.0000    	0.0000      	Open  	;
 131             	76              	79              	1125.0000   	600.0000    	130.0000    	0.0000      	Open  	;
 133             	78              	79              	1003.0000   	600.0000    	130.0000    	0.0000      	Open  	;
 134             	77              	78              	954.0000    	600.0000    	130.0000    	0.0000      	Open  	;
 135             	77              	76              	1200.0000   	600.0000    	130.0000    	0.0000      	Open  	;
 136             	110             	77              	435.0000    	600.0000    	130.0000    	0.0000      	Open  	;
 137             	83              	84              	581.0000    	600.0000    	130.0000    	0.0000      	Open  	;
 138             	82              	86              	825.0000    	600.0000    	130.0000    	0.0000      	Open  	;
 139             	81              	87              	854.0000    	600.0000    	130.0000    	0.0000      	Open  	;
 140             	85              	26              	293.0000    	600.0000    	130.0000    	0.0000      	Open  	;
 141             	86              	84              	1118.0000   	600.0000    	130.0000    	0.0000      	Open  	;
 142             	87              	86              	435.0000    	600.0000    	130.0000    	0.0000      	Open  	;
 143             	84              	88              	602.0000    	600.0000    	130.0000    	0.0000      	Open  	;
 144             	90              	88              	806.0000    	600.0000    	130.0000    	0.0000      	Open  	;
 145             	89              	24              	485.0000    	600.0000    	130.0000    	0.0000      	Open  	;
 146             	86              	90              	837.0000    	600.0000    	130.0000    	0.0000      	Open  	;
 147             	91              	90              	390.0000    	600.0000    	130.0000    	0.0000      	Open  	;
 148             	87              	91              	1061.0000   	600.0000    	130.0000    	0.0000      	Open  	;
 149             	91              	98              	628.0000    	600.0000    	130.0000    	0.0000      	Open  	;
 150             	100             	98              	543.0000    	600.0000    	130.0000    	0.0000      	Open  	;
 151             	113             	100             	740.0000    	600.0000    	130.0000    	0.0000      	Open  	;
 152             	104             	100             	988.0000    	600.0000    	130.0000    	0.0000      	Open  	;
 153             	79              	104             	1859.0000   	600.0000    	130.0000    	0.0000      	Open  	;
 154             	105             	104             	405.0000    	600.0000    	130.0000    	0.0000      	Open  	;
 155             	103             	105             	1473.0000   	600.0000    	130.0000    	0.0000      	Open  	;
 156             	78              	103             	1834.0000   	600.0000    	130.0000    	0.0000      	Open  	;
 157             	88              	92              	1155.0000   	600.0000    	130.0000    	0.0000      	Open  	;
 158             	90              	92              	1093.0000   	600.0000    	130.0000    	0.0000      	Open  	;
 159             	92              	93              	552.0000    	600.0000    	130.0000    	0.0000      	Open  	;
 160             	96              	93              	1314.0000   	600.0000    	130.0000    	0.0000      	Open  	;
 161             	95              	93              	621.0000    	600.0000    	130.0000    	0.0000      	Open  	;
 162             	97              	95              	615.0000    	600.0000    	130.0000    	0.0000      	Open  	;
 163             	97              	96              	950.0000    	600.0000    	130.0000    	0.0000      	Open  	;
 164             	98              	97              	467.0000    	600.0000    	130.0000    	0.0000      	Open  	;
 165             	99              	96              	1049.0000   	600.0000    	130.0000    	0.0000      	Open  	;
 166             	100             	99              	1560.0000   	600.0000    	130.0000    	0.0000      	Open  	;
 167             	101             	99              	637.0000    	600.0000    	130.0000    	0.0000      	Open  	;
 168             	104             	101             	1621.0000   	600.0000    	130.0000    	0.0000      	Open  	;
 169             	102             	101             	1024.0000   	600.0000    	130.0000    	0.0000      	Open  	;
 170             	105             	102             	1393.0000   	600.0000    	130.0000    	0.0000      	Open  	;
 171             	103             	102             	1817.0000   	600.0000    	130.0000    	0.0000      	Open  	;
 172             	75              	106             	747.0000    	600.0000    	130.0000    	0.0000      	Open  	;
 173             	64              	107             	543.0000    	600.0000    	130.0000    	0.0000      	Open  	;
 174             	107             	108             	721.0000    	600.0000    	130.0000    	0.0000      	Open  	;
 175             	108             	109             	882.0000    	600.0000    	130.0000    	0.0000      	Open  	;
 176             	64              	109             	966.0000    	600.0000    	130.0000    	0.0000      	Open  	;
 177             	109             	63              	635.0000    	600.0000    	130.0000    	0.0000      	Open  	;
 178             	75              	53              	607.0000    	600.0000    	130.0000    	0.0000      	Open  	;
 179             	94              	61              	450.0000    	600.0000    	130.0000    	0.0000      	Open  	;
 180             	106             	62              	200.0000    	600.0000    	130.0000    	0.0000      	Open  	;
 181             	43              	111             	228.0000    	600.0000    	130.0000    	0.0000      	Open  	;
 182             	112             	71              	413.0000    	600.0000    	130.0000    	0.0000      	Open  	;
 183             	13              	113             	681.0000    	600.0000    	130.0000    	0.0000      	Open  	;
 184             	110             	114             	2013.0000   	600.0000    	130.0000    	0.0000      	Open  	;

[PUMPS]
;ID              	Node1           	Node2           	Parameters

[VALVES]
;ID              	Node1           	Node2           	Diameter    	Type	Setting     	MinorLoss   

[TAGS]

[DEMANDS]
;Junction        	Demand      	Pattern         	Category

[STATUS]
;ID              	Status/Setting

[PATTERNS]
;ID              	Multipliers

[CURVES]
;ID              	X-Value     	Y-Value

[CONTROLS]





[RULES]








[ENERGY]
 Global Efficiency  	75.0000
 Global Price       	0
 Demand Charge      	0.0000

[EMITTERS]
;Junction        	Coefficient

[QUALITY]
;Node            	InitQual
 1               	9375.000000
 2               	8738.000000
 3               	7989.000000
 4               	8605.000000
 5               	9037.000000
 6               	10115.000000
 7               	10661.000000
 8               	10636.000000
 9               	11263.000000
 10              	11826.000000
 11              	11196.000000
 12              	12038.000000
 13              	6006.000000
 14              	11935.000000
 15              	12569.000000
 16              	14018.000000
 17              	13498.000000
 18              	12532.000000
 19              	11912.000000
 20              	11155.000000
 21              	10334.000000
 22              	10091.000000
 23              	9517.000000
 24              	9021.000000
 25              	8415.000000
 26              	7824.000000
 27              	7231.000000
 28              	6811.000000
 29              	5487.000000
 30              	4886.000000
 31              	5785.000000
 32              	6579.000000
 33              	7158.000000
 34              	7455.000000
 35              	7753.000000
 36              	8263.000000
 37              	8786.000000
 38              	9415.000000
 39              	10340.000000
 40              	9532.000000
 41              	8523.000000
 42              	7989.000000
 43              	7487.000000
 44              	6918.000000
 45              	6337.000000
 46              	5289.000000
 47              	5793.000000
 48              	6383.000000
 49              	8215.000000
 50              	8901.000000
 51              	9917.000000
 52              	7357.000000
 53              	4667.000000
 54              	6365.000000
 55              	5953.000000
 56              	5507.000000
 57              	4937.000000
 58              	4459.000000
 59              	3429.000000
 60              	4204.000000
 61              	3801.000000
 62              	4472.000000
 63              	4122.000000
 64              	2521.000000
 65              	7505.000000
 66              	6575.000000
 67              	5971.000000
 68              	5466.000000
 69              	5012.000000
 70              	7152.000000
 71              	6339.000000
 72              	5573.000000
 73              	5174.000000
 74              	4772.000000
 75              	4166.000000
 76              	3648.000000
 77              	2448.000000
 78              	3402.000000
 79              	4405.000000
 80              	5430.000000
 81              	5903.000000
 82              	6760.000000
 83              	7615.000000
 84              	8196.000000
 85              	7531.000000
 86              	7192.000000
 87              	6757.000000
 88              	8798.000000
 89              	8803.000000
 90              	8029.000000
 91              	7818.000000
 92              	9122.000000
 93              	9498.000000
 94              	3351.000000
 95              	8877.000000
 96              	9212.000000
 97              	8262.000000
 98              	7795.000000
 99              	8522.000000
 100             	7252.000000
 101             	7885.000000
 102             	7053.000000
 103             	5236.000000
 104             	6264.000000
 105             	6669.000000
 106             	4272.000000
 107             	3064.000000
 108             	3785.000000
 109             	3487.000000
 110             	2013.000000
 111             	7715.000000
 112             	6752.000000
 113             	6687.000000

[SOURCES]