; Filename: networks/L-Town/All-Areas/L-TOWN.inp
; WNTR: 0.4.0
; Created: 2023-02-03 14:50:13
[TITLE]
L-TOWN v1.2
L-TOWN (v1.2) was developed by KIOS Research and Innovation Center of Excellence for the BattLeDIM 2020 competition

[JUNCTIONS]
;ID                      Elevation       Demand Pattern                 
 n1                           73.2105               0 P-Residential              ;
 n2                           73.8737         0.16992 P-Residential              ;
 n3                           73.1782          0.1908 P-Residential              ;
 n4                           68.2608               0 P-Residential              ;
 n5                           65.5695          0.2322 P-Residential              ;
 n6                           70.9095          0.2466 P-Residential              ;
 n7                           75.9175         0.37836 P-Residential              ;
 n8                           64.4833         0.30132 P-Residential              ;
 n9                           69.2626         0.40464 P-Residential              ;
 n10                          74.3469         0.08424 P-Residential              ;
 n11                          63.0588         0.54432 P-Residential              ;
 n12                          68.2274         0.05832 P-Residential              ;
 n13                          61.9901          0.2358 P-Residential              ;
 n14                          68.5805         0.01944 P-Residential              ;
 n15                          70.9492         0.19152 P-Residential              ;
 n16                          68.7986         0.09648 P-Residential              ;
 n17                          60.5935         0.44892 P-Residential              ;
 n18                           67.142         0.07236 P-Residential              ;
 n19                          73.3626         0.12924 P-Residential              ;
 n20                          65.9549         0.14436 P-Residential              ;
 n21                          59.6849         0.06084 P-Residential              ;
 n22                          76.1173         0.15084 P-Residential              ;
 n23                          64.2052         0.02869 P-Residential              ;
 n24                          67.8217         0.04392 P-Residential              ;
 n25                          58.9717               0 P-Residential              ;
 n26                          61.6305         0.00468 P-Residential              ;
 n27                          65.7763         0.13068 P-Residential              ;
 n28                          61.4047               0 P-Residential              ;
 n29                          71.5429         0.04896 P-Residential              ;
 n30                          75.3299         0.30564 P-Residential              ;
 n31                          65.0059         0.11628 P-Residential              ;
 n32                           71.159         0.07992 P-Residential              ;
 n33                          60.5902         0.00288 P-Residential              ;
 n34                          65.8482         0.11232 P-Residential              ;
 n35                          59.6258               0 P-Residential              ;
 n36                          70.1959          0.2664 P-Residential              ;
 n37                          63.9172          0.0846 P-Residential              ;
 n38                          58.5794         0.18889 P-Residential              ;
 n39                          62.9791         0.01656 P-Residential              ;
 n40                          60.2093           0.342 P-Residential              ;
 n41                          69.2961         0.17028 P-Residential              ;
 n42                          61.0635           0.243 P-Residential              ;
 n43                          61.8585         0.11808 P-Residential              ;
 n44                          66.1177         0.03888 P-Residential              ;
 n45                          62.5989         0.27288 P-Residential              ;
 n343                           66.12          0.1283 P-Residential              ;
 n344                           74.28          0.2664 P-Residential              ;
 n345                           71.23         0.05256 P-Residential              ;
 n346                           67.93         0.17856 P-Residential              ;
 n347                         73.6617               0 P-Residential              ;
 n348                         74.1128         0.02988 P-Residential              ;
 n349                          74.564         0.05976 P-Residential              ;
 n350                         75.0152         0.20844 P-Residential              ;
 n351                         75.4663          0.3924 P-Residential              ;
 n352                         74.1103          0.1332 P-Residential              ;
 n353                         73.5455         0.29268 P-Residential              ;
 n354                         73.9127         0.12312 P-Residential              ;
 n355                         66.4555         0.43812 P-Residential              ;
 n356                         67.3414          0.1242 P-Residential              ;
 n357                          69.745         0.10224 P-Residential              ;
 n358                         75.9841         0.55008 P-Residential              ;
 n359                         76.0507         0.38808 P-Residential              ;
 n360                         64.9738          0.2682 P-Residential              ;
 n361                         65.4644          0.1134 P-Residential              ;
 n362                         74.0188         0.00576 P-Residential              ;
 n363                         73.6907         0.15444 P-Residential              ;
 n364                         63.4409         0.09936 P-Residential              ;
 n365                         63.8231         0.11052 P-Residential              ;
 n366                         61.8702          0.1638 P-Residential              ;
 n367                         61.7504         0.04489 P-Residential              ;
 n368                         71.0896         0.11556 P-Residential              ;
 n369                         60.5924         0.17784 P-Residential              ;
 n370                         60.5913         0.04027 P-Residential              ;
 n371                         73.8213         0.07056 P-Residential              ;
 n372                         65.8656           0.036 P-Residential              ;
 n373                         59.6553          0.0306 P-Residential              ;
 n374                         74.9737         0.11268 P-Residential              ;
 n375                         73.8301         0.05868 P-Residential              ;
 n376                         72.6865         0.12816 P-Residential              ;
 n377                         62.9179               0 P-Residential              ;
 n378                         68.9578         0.01368 P-Residential              ;
 n379                         70.0939          0.0972 P-Residential              ;
 n380                         61.2341         0.16812 P-Residential              ;
 n381                         74.0464         0.23004 P-Residential              ;
 n382                         72.7629          0.1476 P-Residential              ;
 n383                         71.4794          0.0846 P-Residential              ;
 n384                         69.5445         0.21024 P-Residential              ;
 n385                         66.8891         0.04896 P-Residential              ;
 n386                         59.3943         0.24876 P-Residential              ;
 n387                         64.9448         0.16092 P-Residential              ;
 n388                         63.7718         0.29851 P-Residential              ;
 n389                         67.0238         0.16812 P-Residential              ;

[RESERVOIRS]
;ID                                   Head                  Pattern
 n785                             200                            ;

[TANKS]
;ID                              Elevation           Init Level            Min Level            Max Level             Diameter           Min Volume Volume Curve         Overflow            

[PIPES]
;ID                   Node1                Node2                              Length             Diameter            Roughness           Minor Loss               Status
 p5                   n3                   n2                           23.7879             100             140               0                 Open   ;
 p6                   n12                  n14                          31.2114             100             140               0                 Open   ;
 p7                   n6                   n9                           43.3995             100             140               0                 Open   ;
 p8                   n22                  n30                          53.0045             100             140               0                 Open   ;
 p11                  n7                   n10                          68.3713             100             140               0                 Open   ;
 p12                  n9                   n4                           70.3494             100             140               0                 Open   ;
 p13                  n31                  n27                          49.4422             100             140               0                 Open   ;
 p14                  n14                  n16                          34.2032             100             140               0                 Open   ;
 p15                  n15                  n16                          72.2253             100             140               0                 Open   ;
 p16                  n16                  n18                          50.1237             100             140               0                 Open   ;
 p17                  n18                  n20                          54.2489             100             140               0                 Open   ;
 p18                  n18                  n24                           65.191             100             140               0                 Open   ;
 p19                  n21                  n25                          56.4633             100             140               0                 Open   ;
 p20                  n26                  n28                          29.6436             100             140               0                 Open   ;
 p21                  n27                  n34                          47.7731             100             140               0                 Open   ;
 p22                  n28                  n33                          43.8692             100             140               0                 Open   ;
 p23                  n29                  n32                          18.6286             100             140               0                 Open   ;
 p24                  n32                  n36                          50.1077             100             140               0                 Open   ;
 p25                  n33                  n35                          72.5123             100             140               0                 Open   ;
 p26                  n34                  n37                          60.0953             100             140               0                 Open   ;
 p27                  n35                  n38                          38.7224             100             140               0                 Open   ;
 p28                  n36                  n41                          42.5986             100             140               0                 Open   ;
 p29                  n37                  n45                          63.0851             100             140               0                 Open   ;
 p30                  n37                  n39                          49.6992             100             140               0                 Open   ;
 p31                  n40                  n42                          48.2914             100             140               0                 Open   ;
 p32                  n42                  n43                          41.6678             100             140               0                 Open   ;
 p33                  n43                  n45                          40.4763             100             140               0                 Open   ;
 p240                 n343                 n44                          23.9926             200             140               0                 Open   ;
 p241                 n5                   n8                            52.157             100             140               0                 Open   ;
 p242                 n8                   n11                          62.8657             100             140               0                 Open   ;
 p243                 n11                  n13                          58.9374             100             140               0                 Open   ;
 p244                 n13                  n17                          72.0893             100             140               0                 Open   ;
 p245                 n17                  n21                          73.4228             100             140               0                 Open   ;
 p246                 n10                  n344                         66.1972             100             140               0                 Open   ;
 p247                 n344                 n15                          62.8912             100             140               0                 Open   ;
 p248                 n24                  n346                         56.5717             100             140               0                 Open   ;
 p249                 n345                 n29                          60.1765             100             140               0                 Open   ;
 p250                 n19                  n345                         63.0229             100             140               0                 Open   ;
 p251                 n23                  n31                           48.454             100             140               0                 Open   ;
 p252                 n20                  n23                          61.1031             100             140               0                 Open   ;
 p253                 n1                   n347                          68.097             100             140               0                 Open   ;
 p254                 n347                 n348                         45.4723             100             140               0                 Open   ;
 p255                 n348                 n349                         50.5431             100             140               0                 Open   ;
 p256                 n349                 n350                         50.0042             100             140               0                 Open   ;
 p257                 n350                 n351                         45.6975             100             140               0                 Open   ;
 p258                 n351                 n7                           54.9718             100             140               0                 Open   ;
 p259                 n2                   n352                         45.9778             100             140               0                 Open   ;
 p260                 n352                 n10                          45.9758             100             140               0                 Open   ;
 p261                 n3                   n353                         47.9576             100             140               0                 Open   ;
 p262                 n353                 n354                         46.1673             100             140               0                 Open   ;
 p263                 n354                 n344                         46.6814             100             140               0                 Open   ;
 p264                 n5                   n355                         58.9057             100             140               0                 Open   ;
 p265                 n355                 n356                         47.8409             100             140               0                 Open   ;
 p266                 n356                 n12                          42.6386             100             140               0                 Open   ;
 p267                 n6                   n357                         44.7387             100             140               0                 Open   ;
 p268                 n357                 n14                          74.2158             100             140               0                 Open   ;
 p269                 n7                   n358                         54.8852             100             140               0                 Open   ;
 p270                 n358                 n359                         54.8734             100             140               0                 Open   ;
 p271                 n359                 n22                          54.8852             100             140               0                 Open   ;
 p272                 n8                   n360                         54.4422             100             140               0                 Open   ;
 p273                 n360                 n361                         54.4379             100             140               0                 Open   ;
 p274                 n361                 n20                          54.4422             100             140               0                 Open   ;
 p275                 n10                  n362                          55.052             100             140               0                 Open   ;
 p276                 n362                 n363                         42.0531             100             140               0                 Open   ;
 p277                 n363                 n19                          52.7753             100             140               0                 Open   ;
 p278                 n11                  n364                         49.2109             100             140               0                 Open   ;
 p279                 n364                 n365                          49.202             100             140               0                 Open   ;
 p280                 n365                 n23                          49.2109             100             140               0                 Open   ;
 p281                 n13                  n366                         46.9238             100             140               0                 Open   ;
 p282                 n366                 n367                         46.9108             100             140               0                 Open   ;
 p283                 n367                 n26                          46.9238             100             140               0                 Open   ;
 p284                 n15                  n368                         40.9555             100             140               0                 Open   ;
 p285                 n368                 n345                         40.9555             100             140               0                 Open   ;
 p286                 n17                  n369                         41.7936             100             140               0                 Open   ;
 p287                 n369                 n370                         41.7842             100             140               0                 Open   ;
 p288                 n370                 n33                          41.7936             100             140               0                 Open   ;
 p289                 n19                  n371                         44.3754             100             140               0                 Open   ;
 p290                 n371                 n344                          44.388             100             140               0                 Open   ;
 p291                 n20                  n372                         52.1064             100             140               0                 Open   ;
 p292                 n372                 n27                          31.2938             100             140               0                 Open   ;
 p293                 n21                  n373                         56.6909             100             140               0                 Open   ;
 p294                 n373                 n35                          56.6782             100             140               0                 Open   ;
 p295                 n22                  n374                         45.2612             100             140               0                 Open   ;
 p296                 n374                 n375                         45.2612             100             140               0                 Open   ;
 p297                 n375                 n376                         45.2708             100             140               0                 Open   ;
 p298                 n376                 n29                          45.2612             100             140               0                 Open   ;
 p299                 n23                  n377                          37.911             100             140               0                 Open   ;
 p300                 n377                 n26                            37.92             100             140               0                 Open   ;
 p301                 n24                  n378                         42.1213             100             140               0                 Open   ;
 p302                 n378                 n379                         42.1282             100             140               0                 Open   ;
 p303                 n379                 n345                         42.1213             100             140               0                 Open   ;
 p304                 n28                  n380                         51.8914             100             140               0                 Open   ;
 p305                 n380                 n42                          51.8798             100             140               0                 Open   ;
 p306                 n30                  n381                         49.2268             100             140               0                 Open   ;
 p307                 n381                 n382                         49.2364             100             140               0                 Open   ;
 p308                 n382                 n383                         49.2241             100             140               0                 Open   ;
 p309                 n383                 n36                          49.2364             100             140               0                 Open   ;
 p310                 n32                  n384                         54.2583             100             140               0                 Open   ;
 p311                 n384                 n346                         54.2656             100             140               0                 Open   ;
 p312                 n34                  n385                         37.8059             100             140               0                 Open   ;
 p313                 n385                 n346                         37.8079             100             140               0                 Open   ;
 p314                 n38                  n386                         58.7666             100             140               0                 Open   ;
 p315                 n386                 n40                          58.7569             100             140               0                 Open   ;
 p316                 n44                  n387                         48.3058             200             140               0                 Open   ;
 p317                 n387                 n388                         48.3053             200             140               0                 Open   ;
 p318                 n388                 n45                          48.3058             200             140               0                 Open   ;
 p319                 n44                  n389                         41.9903             100             140               0                 Open   ;
 p320                 n389                 n346                         41.9919             100             140               0                 Open   ;
 p910                 n785                 n343                         30.48               104             100               0                 Open   ;

[PUMPS]
;ID                   Node1                Node2                Properties          

[VALVES]
;ID                   Node1                Node2                            Diameter Type              Setting           Minor Loss

[TAGS]
;type      name       tag       

[DEMANDS]
;ID        Demand     Pattern   
n1         0.0        P-Residential ;
n1         0.0        P-Commercial ;
n1         0.66024    P-Industrial ;
n2         0.16992    P-Residential ;
n2         0.0        P-Commercial ;
n2         0.0        P-Industrial ;
n3         0.1908     P-Residential ;
n3         0.0        P-Commercial ;
n3         0.0        P-Industrial ;
n4         0.0        P-Residential ;
n4         0.0        P-Commercial ;
n4         1.5012     P-Industrial ;
n5         0.2322     P-Residential ;
n5         0.0        P-Commercial ;
n5         0.0        P-Industrial ;
n6         0.24659999999999999 P-Residential ;
n6         0.0        P-Commercial ;
n6         0.0        P-Industrial ;
n7         0.37836    P-Residential ;
n7         0.0        P-Commercial ;
n7         0.0        P-Industrial ;
n8         0.30132    P-Residential ;
n8         0.0        P-Commercial ;
n8         0.0        P-Industrial ;
n9         0.40464    P-Residential ;
n9         0.0        P-Commercial ;
n9         0.0        P-Industrial ;
n10        0.08424    P-Residential ;
n10        0.0        P-Commercial ;
n10        0.0        P-Industrial ;
n11        0.54432    P-Residential ;
n11        0.0        P-Commercial ;
n11        0.0        P-Industrial ;
n12        0.058320000000000004 P-Residential ;
n12        0.0        P-Commercial ;
n12        0.0        P-Industrial ;
n13        0.2358     P-Residential ;
n13        0.0        P-Commercial ;
n13        0.0        P-Industrial ;
n14        0.01944    P-Residential ;
n14        0.0        P-Commercial ;
n14        0.0        P-Industrial ;
n15        0.19152    P-Residential ;
n15        0.0        P-Commercial ;
n15        0.0        P-Industrial ;
n16        0.09648    P-Residential ;
n16        0.0        P-Commercial ;
n16        0.0        P-Industrial ;
n17        0.44892    P-Residential ;
n17        0.0        P-Commercial ;
n17        0.0        P-Industrial ;
n18        0.07236    P-Residential ;
n18        0.0        P-Commercial ;
n18        0.0        P-Industrial ;
n19        0.12924    P-Residential ;
n19        0.0        P-Commercial ;
n19        0.0        P-Industrial ;
n20        0.14436    P-Residential ;
n20        0.0        P-Commercial ;
n20        0.0        P-Industrial ;
n21        0.060840000000000005 P-Residential ;
n21        0.0        P-Commercial ;
n21        0.0        P-Industrial ;
n22        0.15084    P-Residential ;
n22        0.0        P-Commercial ;
n22        0.0        P-Industrial ;
n23        0.02869    P-Residential ;
n23        0.10523    P-Commercial ;
n23        0.0        P-Industrial ;
n24        0.04392    P-Residential ;
n24        0.0        P-Commercial ;
n24        0.0        P-Industrial ;
n25        0.0        P-Residential ;
n25        0.0        P-Commercial ;
n25        1.73736    P-Industrial ;
n26        0.00468    P-Residential ;
n26        0.02376    P-Commercial ;
n26        0.0        P-Industrial ;
n27        0.13068    P-Residential ;
n27        0.0        P-Commercial ;
n27        0.0        P-Industrial ;
n28        0.0        P-Residential ;
n28        0.39276    P-Commercial ;
n28        0.0        P-Industrial ;
n29        0.04896    P-Residential ;
n29        0.0        P-Commercial ;
n29        0.0        P-Industrial ;
n30        0.30564    P-Residential ;
n30        0.0        P-Commercial ;
n30        0.0        P-Industrial ;
n31        0.11628    P-Residential ;
n31        0.0        P-Commercial ;
n31        0.0        P-Industrial ;
n32        0.07992    P-Residential ;
n32        0.0        P-Commercial ;
n32        0.0        P-Industrial ;
n33        0.00288    P-Residential ;
n33        0.11952    P-Commercial ;
n33        0.0        P-Industrial ;
n34        0.11232    P-Residential ;
n34        0.0        P-Commercial ;
n34        0.0        P-Industrial ;
n35        0.0        P-Residential ;
n35        0.05328    P-Commercial ;
n35        0.0        P-Industrial ;
n36        0.2664     P-Residential ;
n36        0.0        P-Commercial ;
n36        0.0        P-Industrial ;
n37        0.0846     P-Residential ;
n37        0.0        P-Commercial ;
n37        0.0        P-Industrial ;
n38        0.18889    P-Residential ;
n38        0.32555    P-Commercial ;
n38        0.0        P-Industrial ;
n39        0.01656    P-Residential ;
n39        0.0        P-Commercial ;
n39        0.0        P-Industrial ;
n40        0.342      P-Residential ;
n40        0.0        P-Commercial ;
n40        0.0        P-Industrial ;